data_853
_audit_creation_date              2023-09-08
_audit_creation_method            'Materials Studio'
_symmetry_space_group_name_H-M    'P1'
_symmetry_Int_Tables_number       1
_symmetry_cell_setting            triclinic
loop_
_symmetry_equiv_pos_as_xyz
  x,y,z
_cell_length_a                    58.2225
_cell_length_b                    112.854
_cell_length_c                    47.2621
_cell_angle_alpha                 90.0000
_cell_angle_beta                  90.0000
_cell_angle_gamma                 90.0000
loop_
_atom_site_label
_atom_site_type_symbol
_atom_site_fract_x
_atom_site_fract_y
_atom_site_fract_z
_atom_site_U_iso_or_equiv
_atom_site_adp_type
_atom_site_occupancy
C1     C     0.69143   0.61339   0.71816   0.00000  Uiso   1.00
C2     C     0.71605   0.59477   0.70277   0.00000  Uiso   1.00
C3     C     0.69767   0.57782   0.67174   0.00000  Uiso   1.00
C4     C     0.65423   0.57921   0.65466   0.00000  Uiso   1.00
C5     C     0.62997   0.59830   0.66877   0.00000  Uiso   1.00
C6     C     0.64832   0.61516   0.70041   0.00000  Uiso   1.00
C7     C     0.63399   0.56021   0.62502   0.00000  Uiso   1.00
C8     C     0.65885   0.54661   0.59098   0.00000  Uiso   1.00
C9     C     0.64123   0.52726   0.56842   0.00000  Uiso   1.00
C10    C     0.59789   0.52105   0.57785   0.00000  Uiso   1.00
C11    C     0.57233   0.53558   0.60907   0.00000  Uiso   1.00
C12    C     0.59017   0.55463   0.63291   0.00000  Uiso   1.00
C13    C     0.71070   0.62990   0.75509   0.00000  Uiso   1.00
N14    N     0.68745   0.64579   0.77602   0.00000  Uiso   1.00
C15    C     0.70176   0.66113   0.81673   0.00000  Uiso   1.00
C16    C     0.73683   0.65624   0.85094   0.00000  Uiso   1.00
C17    C     0.74704   0.67057   0.89326   0.00000  Uiso   1.00
C18    C     0.72250   0.68996   0.90235   0.00000  Uiso   1.00
C19    C     0.68758   0.69489   0.86828   0.00000  Uiso   1.00
C20    C     0.67734   0.68055   0.82587   0.00000  Uiso   1.00
C21    C     0.73007   0.70338   0.04882   0.00000  Uiso   1.00
C22    C     0.73971   0.72653   0.04923   0.00000  Uiso   1.00
C23    C     0.74524   0.73856   0.09712   0.00000  Uiso   1.00
H24    H     0.75145   0.59335   0.71559   0.00000  Uiso   1.00
H25    H     0.71789   0.56262   0.65993   0.00000  Uiso   1.00
H26    H     0.59503   0.60013   0.65441   0.00000  Uiso   1.00
H27    H     0.62825   0.63045   0.71193   0.00000  Uiso   1.00
H28    H     0.69387   0.55132   0.58147   0.00000  Uiso   1.00
H29    H     0.66208   0.51613   0.54174   0.00000  Uiso   1.00
H30    H     0.53638   0.53190   0.61528   0.00000  Uiso   1.00
H31    H     0.56873   0.56570   0.65902   0.00000  Uiso   1.00
H32    H     0.74662   0.62885   0.76573   0.00000  Uiso   1.00
H33    H     0.75707   0.64051   0.84417   0.00000  Uiso   1.00
H34    H     0.77552   0.66653   0.92071   0.00000  Uiso   1.00
H35    H     0.66741   0.71064   0.87510   0.00000  Uiso   1.00
H36    H     0.64883   0.68479   0.79863   0.00000  Uiso   1.00
H37    H     0.74197   0.72965   0.13723   0.00000  Uiso   1.00
C38    C     0.19143   0.11339   0.71816   0.00000  Uiso   1.00
C39    C     0.21605   0.09477   0.70277   0.00000  Uiso   1.00
C40    C     0.19767   0.07782   0.67174   0.00000  Uiso   1.00
C41    C     0.15423   0.07921   0.65466   0.00000  Uiso   1.00
C42    C     0.12997   0.09830   0.66877   0.00000  Uiso   1.00
C43    C     0.14832   0.11516   0.70041   0.00000  Uiso   1.00
C44    C     0.13399   0.06021   0.62502   0.00000  Uiso   1.00
C45    C     0.15885   0.04661   0.59098   0.00000  Uiso   1.00
C46    C     0.14123   0.02726   0.56842   0.00000  Uiso   1.00
C47    C     0.09789   0.02105   0.57785   0.00000  Uiso   1.00
C48    C     0.07233   0.03558   0.60907   0.00000  Uiso   1.00
C49    C     0.09017   0.05463   0.63291   0.00000  Uiso   1.00
C50    C     0.21070   0.12990   0.75509   0.00000  Uiso   1.00
N51    N     0.18745   0.14579   0.77602   0.00000  Uiso   1.00
C52    C     0.20176   0.16113   0.81673   0.00000  Uiso   1.00
C53    C     0.23683   0.15624   0.85094   0.00000  Uiso   1.00
C54    C     0.24704   0.17057   0.89326   0.00000  Uiso   1.00
C55    C     0.22250   0.18996   0.90235   0.00000  Uiso   1.00
C56    C     0.18758   0.19489   0.86828   0.00000  Uiso   1.00
C57    C     0.17734   0.18055   0.82587   0.00000  Uiso   1.00
C58    C     0.23007   0.20338   0.04882   0.00000  Uiso   1.00
C59    C     0.23971   0.22653   0.04923   0.00000  Uiso   1.00
C60    C     0.24524   0.23856   0.09712   0.00000  Uiso   1.00
H61    H     0.25145   0.09335   0.71559   0.00000  Uiso   1.00
H62    H     0.21789   0.06262   0.65993   0.00000  Uiso   1.00
H63    H     0.09503   0.10013   0.65441   0.00000  Uiso   1.00
H64    H     0.12825   0.13045   0.71193   0.00000  Uiso   1.00
H65    H     0.19387   0.05132   0.58147   0.00000  Uiso   1.00
H66    H     0.16208   0.01613   0.54174   0.00000  Uiso   1.00
H67    H     0.03638   0.03190   0.61528   0.00000  Uiso   1.00
H68    H     0.06873   0.06570   0.65902   0.00000  Uiso   1.00
H69    H     0.24662   0.12885   0.76573   0.00000  Uiso   1.00
H70    H     0.25707   0.14051   0.84417   0.00000  Uiso   1.00
H71    H     0.27552   0.16653   0.92071   0.00000  Uiso   1.00
H72    H     0.16741   0.21064   0.87510   0.00000  Uiso   1.00
H73    H     0.14883   0.18479   0.79863   0.00000  Uiso   1.00
H74    H     0.24197   0.22965   0.13723   0.00000  Uiso   1.00
C75    C     0.30857   0.38661   0.71816   0.00000  Uiso   1.00
C76    C     0.28395   0.40523   0.70277   0.00000  Uiso   1.00
C77    C     0.30233   0.42218   0.67174   0.00000  Uiso   1.00
C78    C     0.34577   0.42079   0.65466   0.00000  Uiso   1.00
C79    C     0.37003   0.40170   0.66877   0.00000  Uiso   1.00
C80    C     0.35168   0.38484   0.70041   0.00000  Uiso   1.00
C81    C     0.36601   0.43979   0.62502   0.00000  Uiso   1.00
C82    C     0.34115   0.45339   0.59098   0.00000  Uiso   1.00
C83    C     0.35877   0.47274   0.56842   0.00000  Uiso   1.00
C84    C     0.40211   0.47895   0.57785   0.00000  Uiso   1.00
C85    C     0.42767   0.46442   0.60907   0.00000  Uiso   1.00
C86    C     0.40983   0.44537   0.63291   0.00000  Uiso   1.00
C87    C     0.28930   0.37010   0.75509   0.00000  Uiso   1.00
N88    N     0.31255   0.35421   0.77602   0.00000  Uiso   1.00
C89    C     0.29824   0.33887   0.81673   0.00000  Uiso   1.00
C90    C     0.26317   0.34376   0.85094   0.00000  Uiso   1.00
C91    C     0.25296   0.32943   0.89326   0.00000  Uiso   1.00
C92    C     0.27750   0.31004   0.90235   0.00000  Uiso   1.00
C93    C     0.31242   0.30511   0.86828   0.00000  Uiso   1.00
C94    C     0.32266   0.31945   0.82587   0.00000  Uiso   1.00
C95    C     0.26993   0.29662   0.04882   0.00000  Uiso   1.00
C96    C     0.26029   0.27347   0.04923   0.00000  Uiso   1.00
C97    C     0.25476   0.26144   0.09712   0.00000  Uiso   1.00
H98    H     0.24855   0.40665   0.71559   0.00000  Uiso   1.00
H99    H     0.28211   0.43738   0.65993   0.00000  Uiso   1.00
H100   H     0.40497   0.39987   0.65441   0.00000  Uiso   1.00
H101   H     0.37175   0.36955   0.71193   0.00000  Uiso   1.00
H102   H     0.30613   0.44868   0.58147   0.00000  Uiso   1.00
H103   H     0.33792   0.48387   0.54174   0.00000  Uiso   1.00
H104   H     0.46362   0.46810   0.61528   0.00000  Uiso   1.00
H105   H     0.43127   0.43430   0.65902   0.00000  Uiso   1.00
H106   H     0.25338   0.37115   0.76573   0.00000  Uiso   1.00
H107   H     0.24293   0.35949   0.84417   0.00000  Uiso   1.00
H108   H     0.22448   0.33347   0.92071   0.00000  Uiso   1.00
H109   H     0.33259   0.28936   0.87510   0.00000  Uiso   1.00
H110   H     0.35117   0.31521   0.79863   0.00000  Uiso   1.00
H111   H     0.25803   0.27035   0.13723   0.00000  Uiso   1.00
C112   C     0.80857   0.88661   0.71816   0.00000  Uiso   1.00
C113   C     0.78395   0.90523   0.70277   0.00000  Uiso   1.00
C114   C     0.80233   0.92218   0.67174   0.00000  Uiso   1.00
C115   C     0.84577   0.92079   0.65466   0.00000  Uiso   1.00
C116   C     0.87003   0.90170   0.66877   0.00000  Uiso   1.00
C117   C     0.85168   0.88484   0.70041   0.00000  Uiso   1.00
C118   C     0.86601   0.93979   0.62502   0.00000  Uiso   1.00
C119   C     0.84115   0.95339   0.59098   0.00000  Uiso   1.00
C120   C     0.85877   0.97274   0.56842   0.00000  Uiso   1.00
C121   C     0.90211   0.97895   0.57785   0.00000  Uiso   1.00
C122   C     0.92767   0.96442   0.60907   0.00000  Uiso   1.00
C123   C     0.90983   0.94537   0.63291   0.00000  Uiso   1.00
C124   C     0.78930   0.87010   0.75509   0.00000  Uiso   1.00
N125   N     0.81255   0.85421   0.77602   0.00000  Uiso   1.00
C126   C     0.79824   0.83887   0.81673   0.00000  Uiso   1.00
C127   C     0.76317   0.84376   0.85094   0.00000  Uiso   1.00
C128   C     0.75296   0.82943   0.89326   0.00000  Uiso   1.00
C129   C     0.77750   0.81004   0.90235   0.00000  Uiso   1.00
C130   C     0.81242   0.80511   0.86828   0.00000  Uiso   1.00
C131   C     0.82266   0.81945   0.82587   0.00000  Uiso   1.00
C132   C     0.76993   0.79662   0.04882   0.00000  Uiso   1.00
C133   C     0.76029   0.77347   0.04923   0.00000  Uiso   1.00
C134   C     0.75476   0.76144   0.09712   0.00000  Uiso   1.00
H135   H     0.74855   0.90665   0.71559   0.00000  Uiso   1.00
H136   H     0.78211   0.93738   0.65993   0.00000  Uiso   1.00
H137   H     0.90497   0.89987   0.65441   0.00000  Uiso   1.00
H138   H     0.87175   0.86955   0.71193   0.00000  Uiso   1.00
H139   H     0.80613   0.94868   0.58147   0.00000  Uiso   1.00
H140   H     0.83792   0.98387   0.54174   0.00000  Uiso   1.00
H141   H     0.96362   0.96810   0.61528   0.00000  Uiso   1.00
H142   H     0.93127   0.93430   0.65902   0.00000  Uiso   1.00
H143   H     0.75338   0.87115   0.76573   0.00000  Uiso   1.00
H144   H     0.74293   0.85949   0.84417   0.00000  Uiso   1.00
H145   H     0.72448   0.83347   0.92071   0.00000  Uiso   1.00
H146   H     0.83259   0.78936   0.87510   0.00000  Uiso   1.00
H147   H     0.85117   0.81521   0.79863   0.00000  Uiso   1.00
H148   H     0.75803   0.77035   0.13723   0.00000  Uiso   1.00
C149   C     0.30857   0.61339   0.28184   0.00000  Uiso   1.00
C150   C     0.28395   0.59477   0.29723   0.00000  Uiso   1.00
C151   C     0.30233   0.57782   0.32826   0.00000  Uiso   1.00
C152   C     0.34577   0.57921   0.34534   0.00000  Uiso   1.00
C153   C     0.37003   0.59830   0.33123   0.00000  Uiso   1.00
C154   C     0.35168   0.61516   0.29959   0.00000  Uiso   1.00
C155   C     0.36601   0.56021   0.37498   0.00000  Uiso   1.00
C156   C     0.34115   0.54661   0.40902   0.00000  Uiso   1.00
C157   C     0.35877   0.52726   0.43158   0.00000  Uiso   1.00
C158   C     0.40211   0.52105   0.42215   0.00000  Uiso   1.00
C159   C     0.42767   0.53558   0.39093   0.00000  Uiso   1.00
C160   C     0.40983   0.55463   0.36709   0.00000  Uiso   1.00
C161   C     0.28930   0.62990   0.24491   0.00000  Uiso   1.00
N162   N     0.31255   0.64579   0.22398   0.00000  Uiso   1.00
C163   C     0.29824   0.66113   0.18327   0.00000  Uiso   1.00
C164   C     0.26317   0.65624   0.14906   0.00000  Uiso   1.00
C165   C     0.25296   0.67057   0.10674   0.00000  Uiso   1.00
C166   C     0.27750   0.68996   0.09765   0.00000  Uiso   1.00
C167   C     0.31242   0.69489   0.13172   0.00000  Uiso   1.00
C168   C     0.32266   0.68055   0.17413   0.00000  Uiso   1.00
C169   C     0.26993   0.70338   0.95118   0.00000  Uiso   1.00
C170   C     0.26029   0.72653   0.95077   0.00000  Uiso   1.00
C171   C     0.25476   0.73856   0.90288   0.00000  Uiso   1.00
H172   H     0.24855   0.59335   0.28441   0.00000  Uiso   1.00
H173   H     0.28211   0.56262   0.34007   0.00000  Uiso   1.00
H174   H     0.40497   0.60013   0.34559   0.00000  Uiso   1.00
H175   H     0.37175   0.63045   0.28807   0.00000  Uiso   1.00
H176   H     0.30613   0.55132   0.41853   0.00000  Uiso   1.00
H177   H     0.33792   0.51613   0.45826   0.00000  Uiso   1.00
H178   H     0.46362   0.53190   0.38472   0.00000  Uiso   1.00
H179   H     0.43127   0.56570   0.34098   0.00000  Uiso   1.00
H180   H     0.25338   0.62885   0.23427   0.00000  Uiso   1.00
H181   H     0.24293   0.64051   0.15583   0.00000  Uiso   1.00
H182   H     0.22448   0.66653   0.07929   0.00000  Uiso   1.00
H183   H     0.33259   0.71064   0.12490   0.00000  Uiso   1.00
H184   H     0.35117   0.68479   0.20137   0.00000  Uiso   1.00
H185   H     0.25803   0.72965   0.86277   0.00000  Uiso   1.00
C186   C     0.80857   0.11339   0.28184   0.00000  Uiso   1.00
C187   C     0.78395   0.09477   0.29723   0.00000  Uiso   1.00
C188   C     0.80233   0.07782   0.32826   0.00000  Uiso   1.00
C189   C     0.84577   0.07921   0.34534   0.00000  Uiso   1.00
C190   C     0.87003   0.09830   0.33123   0.00000  Uiso   1.00
C191   C     0.85168   0.11516   0.29959   0.00000  Uiso   1.00
C192   C     0.86601   0.06021   0.37498   0.00000  Uiso   1.00
C193   C     0.84115   0.04661   0.40902   0.00000  Uiso   1.00
C194   C     0.85877   0.02726   0.43158   0.00000  Uiso   1.00
C195   C     0.90211   0.02105   0.42215   0.00000  Uiso   1.00
C196   C     0.92767   0.03558   0.39093   0.00000  Uiso   1.00
C197   C     0.90983   0.05463   0.36709   0.00000  Uiso   1.00
C198   C     0.78930   0.12990   0.24491   0.00000  Uiso   1.00
N199   N     0.81255   0.14579   0.22398   0.00000  Uiso   1.00
C200   C     0.79824   0.16113   0.18327   0.00000  Uiso   1.00
C201   C     0.76317   0.15624   0.14906   0.00000  Uiso   1.00
C202   C     0.75296   0.17057   0.10674   0.00000  Uiso   1.00
C203   C     0.77750   0.18996   0.09765   0.00000  Uiso   1.00
C204   C     0.81242   0.19489   0.13172   0.00000  Uiso   1.00
C205   C     0.82266   0.18055   0.17413   0.00000  Uiso   1.00
C206   C     0.76993   0.20338   0.95118   0.00000  Uiso   1.00
C207   C     0.76029   0.22653   0.95077   0.00000  Uiso   1.00
C208   C     0.75476   0.23856   0.90288   0.00000  Uiso   1.00
H209   H     0.74855   0.09335   0.28441   0.00000  Uiso   1.00
H210   H     0.78211   0.06262   0.34007   0.00000  Uiso   1.00
H211   H     0.90497   0.10013   0.34559   0.00000  Uiso   1.00
H212   H     0.87175   0.13045   0.28807   0.00000  Uiso   1.00
H213   H     0.80613   0.05132   0.41853   0.00000  Uiso   1.00
H214   H     0.83792   0.01613   0.45826   0.00000  Uiso   1.00
H215   H     0.96362   0.03190   0.38472   0.00000  Uiso   1.00
H216   H     0.93127   0.06570   0.34098   0.00000  Uiso   1.00
H217   H     0.75338   0.12885   0.23427   0.00000  Uiso   1.00
H218   H     0.74293   0.14051   0.15583   0.00000  Uiso   1.00
H219   H     0.72448   0.16653   0.07929   0.00000  Uiso   1.00
H220   H     0.83259   0.21064   0.12490   0.00000  Uiso   1.00
H221   H     0.85117   0.18479   0.20137   0.00000  Uiso   1.00
H222   H     0.75803   0.22965   0.86277   0.00000  Uiso   1.00
C223   C     0.69143   0.38661   0.28184   0.00000  Uiso   1.00
C224   C     0.71605   0.40523   0.29723   0.00000  Uiso   1.00
C225   C     0.69767   0.42218   0.32826   0.00000  Uiso   1.00
C226   C     0.65423   0.42079   0.34534   0.00000  Uiso   1.00
C227   C     0.62997   0.40170   0.33123   0.00000  Uiso   1.00
C228   C     0.64832   0.38484   0.29959   0.00000  Uiso   1.00
C229   C     0.63399   0.43979   0.37498   0.00000  Uiso   1.00
C230   C     0.65885   0.45339   0.40902   0.00000  Uiso   1.00
C231   C     0.64123   0.47274   0.43158   0.00000  Uiso   1.00
C232   C     0.59789   0.47895   0.42215   0.00000  Uiso   1.00
C233   C     0.57233   0.46442   0.39093   0.00000  Uiso   1.00
C234   C     0.59017   0.44537   0.36709   0.00000  Uiso   1.00
C235   C     0.71070   0.37010   0.24491   0.00000  Uiso   1.00
N236   N     0.68745   0.35421   0.22398   0.00000  Uiso   1.00
C237   C     0.70176   0.33887   0.18327   0.00000  Uiso   1.00
C238   C     0.73683   0.34376   0.14906   0.00000  Uiso   1.00
C239   C     0.74704   0.32943   0.10674   0.00000  Uiso   1.00
C240   C     0.72250   0.31004   0.09765   0.00000  Uiso   1.00
C241   C     0.68758   0.30511   0.13172   0.00000  Uiso   1.00
C242   C     0.67734   0.31945   0.17413   0.00000  Uiso   1.00
C243   C     0.73007   0.29662   0.95118   0.00000  Uiso   1.00
C244   C     0.73971   0.27347   0.95077   0.00000  Uiso   1.00
C245   C     0.74524   0.26144   0.90288   0.00000  Uiso   1.00
H246   H     0.75145   0.40665   0.28441   0.00000  Uiso   1.00
H247   H     0.71789   0.43738   0.34007   0.00000  Uiso   1.00
H248   H     0.59503   0.39987   0.34559   0.00000  Uiso   1.00
H249   H     0.62825   0.36955   0.28807   0.00000  Uiso   1.00
H250   H     0.69387   0.44868   0.41853   0.00000  Uiso   1.00
H251   H     0.66208   0.48387   0.45826   0.00000  Uiso   1.00
H252   H     0.53638   0.46810   0.38472   0.00000  Uiso   1.00
H253   H     0.56873   0.43430   0.34098   0.00000  Uiso   1.00
H254   H     0.74662   0.37115   0.23427   0.00000  Uiso   1.00
H255   H     0.75707   0.35949   0.15583   0.00000  Uiso   1.00
H256   H     0.77552   0.33347   0.07929   0.00000  Uiso   1.00
H257   H     0.66741   0.28936   0.12490   0.00000  Uiso   1.00
H258   H     0.64883   0.31521   0.20137   0.00000  Uiso   1.00
H259   H     0.74197   0.27035   0.86277   0.00000  Uiso   1.00
C260   C     0.19143   0.88661   0.28184   0.00000  Uiso   1.00
C261   C     0.21605   0.90523   0.29723   0.00000  Uiso   1.00
C262   C     0.19767   0.92218   0.32826   0.00000  Uiso   1.00
C263   C     0.15423   0.92079   0.34534   0.00000  Uiso   1.00
C264   C     0.12997   0.90170   0.33123   0.00000  Uiso   1.00
C265   C     0.14832   0.88484   0.29959   0.00000  Uiso   1.00
C266   C     0.13399   0.93979   0.37498   0.00000  Uiso   1.00
C267   C     0.15885   0.95339   0.40902   0.00000  Uiso   1.00
C268   C     0.14123   0.97274   0.43158   0.00000  Uiso   1.00
C269   C     0.09789   0.97895   0.42215   0.00000  Uiso   1.00
C270   C     0.07233   0.96442   0.39093   0.00000  Uiso   1.00
C271   C     0.09017   0.94537   0.36709   0.00000  Uiso   1.00
C272   C     0.21070   0.87010   0.24491   0.00000  Uiso   1.00
N273   N     0.18745   0.85421   0.22398   0.00000  Uiso   1.00
C274   C     0.20176   0.83887   0.18327   0.00000  Uiso   1.00
C275   C     0.23683   0.84376   0.14906   0.00000  Uiso   1.00
C276   C     0.24704   0.82943   0.10674   0.00000  Uiso   1.00
C277   C     0.22250   0.81004   0.09765   0.00000  Uiso   1.00
C278   C     0.18758   0.80511   0.13172   0.00000  Uiso   1.00
C279   C     0.17734   0.81945   0.17413   0.00000  Uiso   1.00
C280   C     0.23007   0.79662   0.95118   0.00000  Uiso   1.00
C281   C     0.23971   0.77347   0.95077   0.00000  Uiso   1.00
C282   C     0.24524   0.76144   0.90288   0.00000  Uiso   1.00
H283   H     0.25145   0.90665   0.28441   0.00000  Uiso   1.00
H284   H     0.21789   0.93738   0.34007   0.00000  Uiso   1.00
H285   H     0.09503   0.89987   0.34559   0.00000  Uiso   1.00
H286   H     0.12825   0.86955   0.28807   0.00000  Uiso   1.00
H287   H     0.19387   0.94868   0.41853   0.00000  Uiso   1.00
H288   H     0.16208   0.98387   0.45826   0.00000  Uiso   1.00
H289   H     0.03638   0.96810   0.38472   0.00000  Uiso   1.00
H290   H     0.06873   0.93430   0.34098   0.00000  Uiso   1.00
H291   H     0.24662   0.87115   0.23427   0.00000  Uiso   1.00
H292   H     0.25707   0.85949   0.15583   0.00000  Uiso   1.00
H293   H     0.27552   0.83347   0.07929   0.00000  Uiso   1.00
H294   H     0.16741   0.78936   0.12490   0.00000  Uiso   1.00
H295   H     0.14883   0.81521   0.20137   0.00000  Uiso   1.00
H296   H     0.24197   0.77035   0.86277   0.00000  Uiso   1.00
C297   C     0.30857   0.38661   0.28184   0.00000  Uiso   1.00
C298   C     0.28395   0.40523   0.29723   0.00000  Uiso   1.00
C299   C     0.30233   0.42218   0.32826   0.00000  Uiso   1.00
C300   C     0.34577   0.42079   0.34534   0.00000  Uiso   1.00
C301   C     0.37003   0.40170   0.33123   0.00000  Uiso   1.00
C302   C     0.35168   0.38484   0.29959   0.00000  Uiso   1.00
C303   C     0.36601   0.43979   0.37498   0.00000  Uiso   1.00
C304   C     0.34115   0.45339   0.40902   0.00000  Uiso   1.00
C305   C     0.35877   0.47274   0.43158   0.00000  Uiso   1.00
C306   C     0.40211   0.47895   0.42215   0.00000  Uiso   1.00
C307   C     0.42767   0.46442   0.39093   0.00000  Uiso   1.00
C308   C     0.40983   0.44537   0.36709   0.00000  Uiso   1.00
C309   C     0.28930   0.37010   0.24491   0.00000  Uiso   1.00
N310   N     0.31255   0.35421   0.22398   0.00000  Uiso   1.00
C311   C     0.29824   0.33887   0.18327   0.00000  Uiso   1.00
C312   C     0.26317   0.34376   0.14906   0.00000  Uiso   1.00
C313   C     0.25296   0.32943   0.10674   0.00000  Uiso   1.00
C314   C     0.27750   0.31004   0.09765   0.00000  Uiso   1.00
C315   C     0.31242   0.30511   0.13172   0.00000  Uiso   1.00
C316   C     0.32266   0.31945   0.17413   0.00000  Uiso   1.00
C317   C     0.26993   0.29662   0.95118   0.00000  Uiso   1.00
C318   C     0.26029   0.27347   0.95077   0.00000  Uiso   1.00
C319   C     0.25476   0.26144   0.90288   0.00000  Uiso   1.00
H320   H     0.24855   0.40665   0.28441   0.00000  Uiso   1.00
H321   H     0.28211   0.43738   0.34007   0.00000  Uiso   1.00
H322   H     0.40497   0.39987   0.34559   0.00000  Uiso   1.00
H323   H     0.37175   0.36955   0.28807   0.00000  Uiso   1.00
H324   H     0.30613   0.44868   0.41853   0.00000  Uiso   1.00
H325   H     0.33792   0.48387   0.45826   0.00000  Uiso   1.00
H326   H     0.46362   0.46810   0.38472   0.00000  Uiso   1.00
H327   H     0.43127   0.43430   0.34098   0.00000  Uiso   1.00
H328   H     0.25338   0.37115   0.23427   0.00000  Uiso   1.00
H329   H     0.24293   0.35949   0.15583   0.00000  Uiso   1.00
H330   H     0.22448   0.33347   0.07929   0.00000  Uiso   1.00
H331   H     0.33259   0.28936   0.12490   0.00000  Uiso   1.00
H332   H     0.35117   0.31521   0.20137   0.00000  Uiso   1.00
H333   H     0.25803   0.27035   0.86277   0.00000  Uiso   1.00
C334   C     0.80857   0.88661   0.28184   0.00000  Uiso   1.00
C335   C     0.78395   0.90523   0.29723   0.00000  Uiso   1.00
C336   C     0.80233   0.92218   0.32826   0.00000  Uiso   1.00
C337   C     0.84577   0.92079   0.34534   0.00000  Uiso   1.00
C338   C     0.87003   0.90170   0.33123   0.00000  Uiso   1.00
C339   C     0.85168   0.88484   0.29959   0.00000  Uiso   1.00
C340   C     0.86601   0.93979   0.37498   0.00000  Uiso   1.00
C341   C     0.84115   0.95339   0.40902   0.00000  Uiso   1.00
C342   C     0.85877   0.97274   0.43158   0.00000  Uiso   1.00
C343   C     0.90211   0.97895   0.42215   0.00000  Uiso   1.00
C344   C     0.92767   0.96442   0.39093   0.00000  Uiso   1.00
C345   C     0.90983   0.94537   0.36709   0.00000  Uiso   1.00
C346   C     0.78930   0.87010   0.24491   0.00000  Uiso   1.00
N347   N     0.81255   0.85421   0.22398   0.00000  Uiso   1.00
C348   C     0.79824   0.83887   0.18327   0.00000  Uiso   1.00
C349   C     0.76317   0.84376   0.14906   0.00000  Uiso   1.00
C350   C     0.75296   0.82943   0.10674   0.00000  Uiso   1.00
C351   C     0.77750   0.81004   0.09765   0.00000  Uiso   1.00
C352   C     0.81242   0.80511   0.13172   0.00000  Uiso   1.00
C353   C     0.82266   0.81945   0.17413   0.00000  Uiso   1.00
C354   C     0.76993   0.79662   0.95118   0.00000  Uiso   1.00
C355   C     0.76029   0.77347   0.95077   0.00000  Uiso   1.00
C356   C     0.75476   0.76144   0.90288   0.00000  Uiso   1.00
H357   H     0.74855   0.90665   0.28441   0.00000  Uiso   1.00
H358   H     0.78211   0.93738   0.34007   0.00000  Uiso   1.00
H359   H     0.90497   0.89987   0.34559   0.00000  Uiso   1.00
H360   H     0.87175   0.86955   0.28807   0.00000  Uiso   1.00
H361   H     0.80613   0.94868   0.41853   0.00000  Uiso   1.00
H362   H     0.83792   0.98387   0.45826   0.00000  Uiso   1.00
H363   H     0.96362   0.96810   0.38472   0.00000  Uiso   1.00
H364   H     0.93127   0.93430   0.34098   0.00000  Uiso   1.00
H365   H     0.75338   0.87115   0.23427   0.00000  Uiso   1.00
H366   H     0.74293   0.85949   0.15583   0.00000  Uiso   1.00
H367   H     0.72448   0.83347   0.07929   0.00000  Uiso   1.00
H368   H     0.83259   0.78936   0.12490   0.00000  Uiso   1.00
H369   H     0.85117   0.81521   0.20137   0.00000  Uiso   1.00
H370   H     0.75803   0.77035   0.86277   0.00000  Uiso   1.00
C371   C     0.69143   0.61339   0.28184   0.00000  Uiso   1.00
C372   C     0.71605   0.59477   0.29723   0.00000  Uiso   1.00
C373   C     0.69767   0.57782   0.32826   0.00000  Uiso   1.00
C374   C     0.65423   0.57921   0.34534   0.00000  Uiso   1.00
C375   C     0.62997   0.59830   0.33123   0.00000  Uiso   1.00
C376   C     0.64832   0.61516   0.29959   0.00000  Uiso   1.00
C377   C     0.63399   0.56021   0.37498   0.00000  Uiso   1.00
C378   C     0.65885   0.54661   0.40902   0.00000  Uiso   1.00
C379   C     0.64123   0.52726   0.43158   0.00000  Uiso   1.00
C380   C     0.59789   0.52105   0.42215   0.00000  Uiso   1.00
C381   C     0.57233   0.53558   0.39093   0.00000  Uiso   1.00
C382   C     0.59017   0.55463   0.36709   0.00000  Uiso   1.00
C383   C     0.71070   0.62990   0.24491   0.00000  Uiso   1.00
N384   N     0.68745   0.64579   0.22398   0.00000  Uiso   1.00
C385   C     0.70176   0.66113   0.18327   0.00000  Uiso   1.00
C386   C     0.73683   0.65624   0.14906   0.00000  Uiso   1.00
C387   C     0.74704   0.67057   0.10674   0.00000  Uiso   1.00
C388   C     0.72250   0.68996   0.09765   0.00000  Uiso   1.00
C389   C     0.68758   0.69489   0.13172   0.00000  Uiso   1.00
C390   C     0.67734   0.68055   0.17413   0.00000  Uiso   1.00
C391   C     0.73007   0.70338   0.95118   0.00000  Uiso   1.00
C392   C     0.73971   0.72653   0.95077   0.00000  Uiso   1.00
C393   C     0.74524   0.73856   0.90288   0.00000  Uiso   1.00
H394   H     0.75145   0.59335   0.28441   0.00000  Uiso   1.00
H395   H     0.71789   0.56262   0.34007   0.00000  Uiso   1.00
H396   H     0.59503   0.60013   0.34559   0.00000  Uiso   1.00
H397   H     0.62825   0.63045   0.28807   0.00000  Uiso   1.00
H398   H     0.69387   0.55132   0.41853   0.00000  Uiso   1.00
H399   H     0.66208   0.51613   0.45826   0.00000  Uiso   1.00
H400   H     0.53638   0.53190   0.38472   0.00000  Uiso   1.00
H401   H     0.56873   0.56570   0.34098   0.00000  Uiso   1.00
H402   H     0.74662   0.62885   0.23427   0.00000  Uiso   1.00
H403   H     0.75707   0.64051   0.15583   0.00000  Uiso   1.00
H404   H     0.77552   0.66653   0.07929   0.00000  Uiso   1.00
H405   H     0.66741   0.71064   0.12490   0.00000  Uiso   1.00
H406   H     0.64883   0.68479   0.20137   0.00000  Uiso   1.00
H407   H     0.74197   0.72965   0.86277   0.00000  Uiso   1.00
C408   C     0.19143   0.11339   0.28184   0.00000  Uiso   1.00
C409   C     0.21605   0.09477   0.29723   0.00000  Uiso   1.00
C410   C     0.19767   0.07782   0.32826   0.00000  Uiso   1.00
C411   C     0.15423   0.07921   0.34534   0.00000  Uiso   1.00
C412   C     0.12997   0.09830   0.33123   0.00000  Uiso   1.00
C413   C     0.14832   0.11516   0.29959   0.00000  Uiso   1.00
C414   C     0.13399   0.06021   0.37498   0.00000  Uiso   1.00
C415   C     0.15885   0.04661   0.40902   0.00000  Uiso   1.00
C416   C     0.14123   0.02726   0.43158   0.00000  Uiso   1.00
C417   C     0.09789   0.02105   0.42215   0.00000  Uiso   1.00
C418   C     0.07233   0.03558   0.39093   0.00000  Uiso   1.00
C419   C     0.09017   0.05463   0.36709   0.00000  Uiso   1.00
C420   C     0.21070   0.12990   0.24491   0.00000  Uiso   1.00
N421   N     0.18745   0.14579   0.22398   0.00000  Uiso   1.00
C422   C     0.20176   0.16113   0.18327   0.00000  Uiso   1.00
C423   C     0.23683   0.15624   0.14906   0.00000  Uiso   1.00
C424   C     0.24704   0.17057   0.10674   0.00000  Uiso   1.00
C425   C     0.22250   0.18996   0.09765   0.00000  Uiso   1.00
C426   C     0.18758   0.19489   0.13172   0.00000  Uiso   1.00
C427   C     0.17734   0.18055   0.17413   0.00000  Uiso   1.00
C428   C     0.23007   0.20338   0.95118   0.00000  Uiso   1.00
C429   C     0.23971   0.22653   0.95077   0.00000  Uiso   1.00
C430   C     0.24524   0.23856   0.90288   0.00000  Uiso   1.00
H431   H     0.25145   0.09335   0.28441   0.00000  Uiso   1.00
H432   H     0.21789   0.06262   0.34007   0.00000  Uiso   1.00
H433   H     0.09503   0.10013   0.34559   0.00000  Uiso   1.00
H434   H     0.12825   0.13045   0.28807   0.00000  Uiso   1.00
H435   H     0.19387   0.05132   0.41853   0.00000  Uiso   1.00
H436   H     0.16208   0.01613   0.45826   0.00000  Uiso   1.00
H437   H     0.03638   0.03190   0.38472   0.00000  Uiso   1.00
H438   H     0.06873   0.06570   0.34098   0.00000  Uiso   1.00
H439   H     0.24662   0.12885   0.23427   0.00000  Uiso   1.00
H440   H     0.25707   0.14051   0.15583   0.00000  Uiso   1.00
H441   H     0.27552   0.16653   0.07929   0.00000  Uiso   1.00
H442   H     0.16741   0.21064   0.12490   0.00000  Uiso   1.00
H443   H     0.14883   0.18479   0.20137   0.00000  Uiso   1.00
H444   H     0.24197   0.22965   0.86277   0.00000  Uiso   1.00
C445   C     0.69143   0.38661   0.71816   0.00000  Uiso   1.00
C446   C     0.71605   0.40523   0.70277   0.00000  Uiso   1.00
C447   C     0.69767   0.42218   0.67174   0.00000  Uiso   1.00
C448   C     0.65423   0.42079   0.65466   0.00000  Uiso   1.00
C449   C     0.62997   0.40170   0.66877   0.00000  Uiso   1.00
C450   C     0.64832   0.38484   0.70041   0.00000  Uiso   1.00
C451   C     0.63399   0.43979   0.62502   0.00000  Uiso   1.00
C452   C     0.65885   0.45339   0.59098   0.00000  Uiso   1.00
C453   C     0.64123   0.47274   0.56842   0.00000  Uiso   1.00
C454   C     0.59789   0.47895   0.57785   0.00000  Uiso   1.00
C455   C     0.57233   0.46442   0.60907   0.00000  Uiso   1.00
C456   C     0.59017   0.44537   0.63291   0.00000  Uiso   1.00
C457   C     0.71070   0.37010   0.75509   0.00000  Uiso   1.00
N458   N     0.68745   0.35421   0.77602   0.00000  Uiso   1.00
C459   C     0.70176   0.33887   0.81673   0.00000  Uiso   1.00
C460   C     0.73683   0.34376   0.85094   0.00000  Uiso   1.00
C461   C     0.74704   0.32943   0.89326   0.00000  Uiso   1.00
C462   C     0.72250   0.31004   0.90235   0.00000  Uiso   1.00
C463   C     0.68758   0.30511   0.86828   0.00000  Uiso   1.00
C464   C     0.67734   0.31945   0.82587   0.00000  Uiso   1.00
C465   C     0.73007   0.29662   0.04882   0.00000  Uiso   1.00
C466   C     0.73971   0.27347   0.04923   0.00000  Uiso   1.00
C467   C     0.74524   0.26144   0.09712   0.00000  Uiso   1.00
H468   H     0.75145   0.40665   0.71559   0.00000  Uiso   1.00
H469   H     0.71789   0.43738   0.65993   0.00000  Uiso   1.00
H470   H     0.59503   0.39987   0.65441   0.00000  Uiso   1.00
H471   H     0.62825   0.36955   0.71193   0.00000  Uiso   1.00
H472   H     0.69387   0.44868   0.58147   0.00000  Uiso   1.00
H473   H     0.66208   0.48387   0.54174   0.00000  Uiso   1.00
H474   H     0.53638   0.46810   0.61528   0.00000  Uiso   1.00
H475   H     0.56873   0.43430   0.65902   0.00000  Uiso   1.00
H476   H     0.74662   0.37115   0.76573   0.00000  Uiso   1.00
H477   H     0.75707   0.35949   0.84417   0.00000  Uiso   1.00
H478   H     0.77552   0.33347   0.92071   0.00000  Uiso   1.00
H479   H     0.66741   0.28936   0.87510   0.00000  Uiso   1.00
H480   H     0.64883   0.31521   0.79863   0.00000  Uiso   1.00
H481   H     0.74197   0.27035   0.13723   0.00000  Uiso   1.00
C482   C     0.19143   0.88661   0.71816   0.00000  Uiso   1.00
C483   C     0.21605   0.90523   0.70277   0.00000  Uiso   1.00
C484   C     0.19767   0.92218   0.67174   0.00000  Uiso   1.00
C485   C     0.15423   0.92079   0.65466   0.00000  Uiso   1.00
C486   C     0.12997   0.90170   0.66877   0.00000  Uiso   1.00
C487   C     0.14832   0.88484   0.70041   0.00000  Uiso   1.00
C488   C     0.13399   0.93979   0.62502   0.00000  Uiso   1.00
C489   C     0.15885   0.95339   0.59098   0.00000  Uiso   1.00
C490   C     0.14123   0.97274   0.56842   0.00000  Uiso   1.00
C491   C     0.09789   0.97895   0.57785   0.00000  Uiso   1.00
C492   C     0.07233   0.96442   0.60907   0.00000  Uiso   1.00
C493   C     0.09017   0.94537   0.63291   0.00000  Uiso   1.00
C494   C     0.21070   0.87010   0.75509   0.00000  Uiso   1.00
N495   N     0.18745   0.85421   0.77602   0.00000  Uiso   1.00
C496   C     0.20176   0.83887   0.81673   0.00000  Uiso   1.00
C497   C     0.23683   0.84376   0.85094   0.00000  Uiso   1.00
C498   C     0.24704   0.82943   0.89326   0.00000  Uiso   1.00
C499   C     0.22250   0.81004   0.90235   0.00000  Uiso   1.00
C500   C     0.18758   0.80511   0.86828   0.00000  Uiso   1.00
C501   C     0.17734   0.81945   0.82587   0.00000  Uiso   1.00
C502   C     0.23007   0.79662   0.04882   0.00000  Uiso   1.00
C503   C     0.23971   0.77347   0.04923   0.00000  Uiso   1.00
C504   C     0.24524   0.76144   0.09712   0.00000  Uiso   1.00
H505   H     0.25145   0.90665   0.71559   0.00000  Uiso   1.00
H506   H     0.21789   0.93738   0.65993   0.00000  Uiso   1.00
H507   H     0.09503   0.89987   0.65441   0.00000  Uiso   1.00
H508   H     0.12825   0.86955   0.71193   0.00000  Uiso   1.00
H509   H     0.19387   0.94868   0.58147   0.00000  Uiso   1.00
H510   H     0.16208   0.98387   0.54174   0.00000  Uiso   1.00
H511   H     0.03638   0.96810   0.61528   0.00000  Uiso   1.00
H512   H     0.06873   0.93430   0.65902   0.00000  Uiso   1.00
H513   H     0.24662   0.87115   0.76573   0.00000  Uiso   1.00
H514   H     0.25707   0.85949   0.84417   0.00000  Uiso   1.00
H515   H     0.27552   0.83347   0.92071   0.00000  Uiso   1.00
H516   H     0.16741   0.78936   0.87510   0.00000  Uiso   1.00
H517   H     0.14883   0.81521   0.79863   0.00000  Uiso   1.00
H518   H     0.24197   0.77035   0.13723   0.00000  Uiso   1.00
C519   C     0.30857   0.61339   0.71816   0.00000  Uiso   1.00
C520   C     0.28395   0.59477   0.70277   0.00000  Uiso   1.00
C521   C     0.30233   0.57782   0.67174   0.00000  Uiso   1.00
C522   C     0.34577   0.57921   0.65466   0.00000  Uiso   1.00
C523   C     0.37003   0.59830   0.66877   0.00000  Uiso   1.00
C524   C     0.35168   0.61516   0.70041   0.00000  Uiso   1.00
C525   C     0.36601   0.56021   0.62502   0.00000  Uiso   1.00
C526   C     0.34115   0.54661   0.59098   0.00000  Uiso   1.00
C527   C     0.35877   0.52726   0.56842   0.00000  Uiso   1.00
C528   C     0.40211   0.52105   0.57785   0.00000  Uiso   1.00
C529   C     0.42767   0.53558   0.60907   0.00000  Uiso   1.00
C530   C     0.40983   0.55463   0.63291   0.00000  Uiso   1.00
C531   C     0.28930   0.62990   0.75509   0.00000  Uiso   1.00
N532   N     0.31255   0.64579   0.77602   0.00000  Uiso   1.00
C533   C     0.29824   0.66113   0.81673   0.00000  Uiso   1.00
C534   C     0.26317   0.65624   0.85094   0.00000  Uiso   1.00
C535   C     0.25296   0.67057   0.89326   0.00000  Uiso   1.00
C536   C     0.27750   0.68996   0.90235   0.00000  Uiso   1.00
C537   C     0.31242   0.69489   0.86828   0.00000  Uiso   1.00
C538   C     0.32266   0.68055   0.82587   0.00000  Uiso   1.00
C539   C     0.26993   0.70338   0.04882   0.00000  Uiso   1.00
C540   C     0.26029   0.72653   0.04923   0.00000  Uiso   1.00
C541   C     0.25476   0.73856   0.09712   0.00000  Uiso   1.00
H542   H     0.24855   0.59335   0.71559   0.00000  Uiso   1.00
H543   H     0.28211   0.56262   0.65993   0.00000  Uiso   1.00
H544   H     0.40497   0.60013   0.65441   0.00000  Uiso   1.00
H545   H     0.37175   0.63045   0.71193   0.00000  Uiso   1.00
H546   H     0.30613   0.55132   0.58147   0.00000  Uiso   1.00
H547   H     0.33792   0.51613   0.54174   0.00000  Uiso   1.00
H548   H     0.46362   0.53190   0.61528   0.00000  Uiso   1.00
H549   H     0.43127   0.56570   0.65902   0.00000  Uiso   1.00
H550   H     0.25338   0.62885   0.76573   0.00000  Uiso   1.00
H551   H     0.24293   0.64051   0.84417   0.00000  Uiso   1.00
H552   H     0.22448   0.66653   0.92071   0.00000  Uiso   1.00
H553   H     0.33259   0.71064   0.87510   0.00000  Uiso   1.00
H554   H     0.35117   0.68479   0.79863   0.00000  Uiso   1.00
H555   H     0.25803   0.72965   0.13723   0.00000  Uiso   1.00
C556   C     0.80857   0.11339   0.71816   0.00000  Uiso   1.00
C557   C     0.78395   0.09477   0.70277   0.00000  Uiso   1.00
C558   C     0.80233   0.07782   0.67174   0.00000  Uiso   1.00
C559   C     0.84577   0.07921   0.65466   0.00000  Uiso   1.00
C560   C     0.87003   0.09830   0.66877   0.00000  Uiso   1.00
C561   C     0.85168   0.11516   0.70041   0.00000  Uiso   1.00
C562   C     0.86601   0.06021   0.62502   0.00000  Uiso   1.00
C563   C     0.84115   0.04661   0.59098   0.00000  Uiso   1.00
C564   C     0.85877   0.02726   0.56842   0.00000  Uiso   1.00
C565   C     0.90211   0.02105   0.57785   0.00000  Uiso   1.00
C566   C     0.92767   0.03558   0.60907   0.00000  Uiso   1.00
C567   C     0.90983   0.05463   0.63291   0.00000  Uiso   1.00
C568   C     0.78930   0.12990   0.75509   0.00000  Uiso   1.00
N569   N     0.81255   0.14579   0.77602   0.00000  Uiso   1.00
C570   C     0.79824   0.16113   0.81673   0.00000  Uiso   1.00
C571   C     0.76317   0.15624   0.85094   0.00000  Uiso   1.00
C572   C     0.75296   0.17057   0.89326   0.00000  Uiso   1.00
C573   C     0.77750   0.18996   0.90235   0.00000  Uiso   1.00
C574   C     0.81242   0.19489   0.86828   0.00000  Uiso   1.00
C575   C     0.82266   0.18055   0.82587   0.00000  Uiso   1.00
C576   C     0.76993   0.20338   0.04882   0.00000  Uiso   1.00
C577   C     0.76029   0.22653   0.04923   0.00000  Uiso   1.00
C578   C     0.75476   0.23856   0.09712   0.00000  Uiso   1.00
H579   H     0.74855   0.09335   0.71559   0.00000  Uiso   1.00
H580   H     0.78211   0.06262   0.65993   0.00000  Uiso   1.00
H581   H     0.90497   0.10013   0.65441   0.00000  Uiso   1.00
H582   H     0.87175   0.13045   0.71193   0.00000  Uiso   1.00
H583   H     0.80613   0.05132   0.58147   0.00000  Uiso   1.00
H584   H     0.83792   0.01613   0.54174   0.00000  Uiso   1.00
H585   H     0.96362   0.03190   0.61528   0.00000  Uiso   1.00
H586   H     0.93127   0.06570   0.65902   0.00000  Uiso   1.00
H587   H     0.75338   0.12885   0.76573   0.00000  Uiso   1.00
H588   H     0.74293   0.14051   0.84417   0.00000  Uiso   1.00
H589   H     0.72448   0.16653   0.92071   0.00000  Uiso   1.00
H590   H     0.83259   0.21064   0.87510   0.00000  Uiso   1.00
H591   H     0.85117   0.18479   0.79863   0.00000  Uiso   1.00
H592   H     0.75803   0.22965   0.13723   0.00000  Uiso   1.00
C593   C     0.72567   0.69231   0.00000   0.00000  Uiso   1.00
C594   C     0.74467   0.73788   0.00000   0.00000  Uiso   1.00
C595   C     0.22567   0.19231   0.00000   0.00000  Uiso   1.00
C596   C     0.24467   0.23788   0.00000   0.00000  Uiso   1.00
C597   C     0.27433   0.30769   0.00000   0.00000  Uiso   1.00
C598   C     0.25533   0.26212   0.00000   0.00000  Uiso   1.00
C599   C     0.77433   0.80769   0.00000   0.00000  Uiso   1.00
C600   C     0.75533   0.76212   0.00000   0.00000  Uiso   1.00
C601   C     0.27433   0.69231   0.00000   0.00000  Uiso   1.00
C602   C     0.25533   0.73788   0.00000   0.00000  Uiso   1.00
C603   C     0.77433   0.19231   0.00000   0.00000  Uiso   1.00
C604   C     0.75533   0.23788   0.00000   0.00000  Uiso   1.00
C605   C     0.72567   0.30769   0.00000   0.00000  Uiso   1.00
C606   C     0.74467   0.26212   0.00000   0.00000  Uiso   1.00
C607   C     0.22567   0.80769   0.00000   0.00000  Uiso   1.00
C608   C     0.24467   0.76212   0.00000   0.00000  Uiso   1.00
N609   N     0.58052   0.50000   0.44218   0.00000  Uiso   1.00
C610   C     0.54004   0.50000   0.47177   0.00000  Uiso   1.00
N611   N     0.08052   0.00000   0.44218   0.00000  Uiso   1.00
C612   C     0.04004   0.00000   0.47177   0.00000  Uiso   1.00
N613   N     0.41948   0.50000   0.44218   0.00000  Uiso   1.00
C614   C     0.45996   0.50000   0.47177   0.00000  Uiso   1.00
N615   N     0.91948   0.00000   0.44218   0.00000  Uiso   1.00
C616   C     0.95996   0.00000   0.47177   0.00000  Uiso   1.00
N617   N     0.41948   0.50000   0.55782   0.00000  Uiso   1.00
C618   C     0.45996   0.50000   0.52823   0.00000  Uiso   1.00
N619   N     0.91948   0.00000   0.55782   0.00000  Uiso   1.00
C620   C     0.95996   0.00000   0.52823   0.00000  Uiso   1.00
N621   N     0.58052   0.50000   0.55782   0.00000  Uiso   1.00
C622   C     0.54004   0.50000   0.52823   0.00000  Uiso   1.00
N623   N     0.08052   0.00000   0.55782   0.00000  Uiso   1.00
C624   C     0.04004   0.00000   0.52823   0.00000  Uiso   1.00
C625   C     0.00000   0.00000   0.44433   0.00000  Uiso   1.00
C626   C     0.50000   0.50000   0.44433   0.00000  Uiso   1.00
C627   C     0.00000   0.00000   0.55567   0.00000  Uiso   1.00
C628   C     0.50000   0.50000   0.55567   0.00000  Uiso   1.00
F629   F     0.50000   0.50000   0.60979   0.00000  Uiso   1.00
F630   F     0.00000   0.00000   0.60979   0.00000  Uiso   1.00
F631   F     0.50000   0.50000   0.39021   0.00000  Uiso   1.00
F632   F     0.00000   0.00000   0.39021   0.00000  Uiso   1.00
H633   H     0.71824   0.67361  -0.00085   0.00000  Uiso   1.00
H634   H     0.21824   0.17361  -0.00085   0.00000  Uiso   1.00
H635   H     0.28176   0.32639  -0.00085   0.00000  Uiso   1.00
H636   H     0.78176   0.82639  -0.00085   0.00000  Uiso   1.00
H637   H     0.28176   0.67361   0.00085   0.00000  Uiso   1.00
H638   H     0.78176   0.17361   0.00085   0.00000  Uiso   1.00
H639   H     0.71824   0.32639   0.00085   0.00000  Uiso   1.00
H640   H     0.21824   0.82639   0.00085   0.00000  Uiso   1.00
loop_
_geom_bond_atom_site_label_1
_geom_bond_atom_site_label_2
_geom_bond_distance
_geom_bond_site_symmetry_2
_ccdc_geom_bond_type
C1     C2      1.400   .     D
C1     C6      1.404   .     S
C1     C13     1.476   .     S
C2     C3      1.396   .     S
C2     H24     1.140   .     S
C3     C4      1.407   .     D
C3     H25     1.140   .     S
C4     C5      1.408   .     S
C4     C7      1.492   .     S
C5     C6      1.400   .     D
C5     H26     1.140   .     S
C6     H27     1.140   .     S
C7     C8      1.404   .     D
C7     C12     1.405   .     S
C8     C9      1.396   .     S
C8     H28     1.140   .     S
C9     C10     1.406   .     D
C9     H29     1.140   .     S
C10    C11     1.408   .     S
C10    N621    1.455   .     S
C11    C12     1.397   .     D
C11    H30     1.140   .     S
C12    H31     1.140   .     S
C13    N14     1.299   .     D
C13    H32     1.140   .     S
N14    C15     1.439   .     S
C15    C16     1.409   .     D
C15    C20     1.401   .     S
C16    C17     1.397   .     S
C16    H33     1.140   .     S
C17    C18     1.402   .     D
C17    H34     1.140   .     S
C18    C19     1.404   .     S
C18    C391    1.479   .     S
C19    C20     1.399   .     D
C19    H35     1.140   .     S
C20    H36     1.140   .     S
C21    C22     1.414   .     D
C21    C593    1.395   .     S
C21    C388    1.479   .     S
C22    C23     1.407   .     S
C22    C594    1.414   .     S
C23    H37     1.140   .     S
C23    C134    1.398   .     D
C38    C39     1.400   .     D
C38    C43     1.404   .     S
C38    C50     1.476   .     S
C39    C40     1.396   .     S
C39    H61     1.140   .     S
C40    C41     1.407   .     D
C40    H62     1.140   .     S
C41    C42     1.408   .     S
C41    C44     1.492   .     S
C42    C43     1.400   .     D
C42    H63     1.140   .     S
C43    H64     1.140   .     S
C44    C45     1.404   .     D
C44    C49     1.405   .     S
C45    C46     1.396   .     S
C45    H65     1.140   .     S
C46    C47     1.406   .     D
C46    H66     1.140   .     S
C47    C48     1.408   .     S
C47    N623    1.455   .     S
C48    C49     1.397   .     D
C48    H67     1.140   .     S
C49    H68     1.140   .     S
C50    N51     1.299   .     D
C50    H69     1.140   .     S
N51    C52     1.439   .     S
C52    C53     1.409   .     D
C52    C57     1.401   .     S
C53    C54     1.397   .     S
C53    H70     1.140   .     S
C54    C55     1.402   .     D
C54    H71     1.140   .     S
C55    C56     1.404   .     S
C55    C428    1.479   .     S
C56    C57     1.399   .     D
C56    H72     1.140   .     S
C57    H73     1.140   .     S
C58    C59     1.414   .     D
C58    C595    1.395   .     S
C58    C425    1.479   .     S
C59    C60     1.407   .     S
C59    C596    1.414   .     S
C60    H74     1.140   .     S
C60    C97     1.398   .     D
C75    C76     1.400   .     D
C75    C80     1.404   .     S
C75    C87     1.476   .     S
C76    C77     1.396   .     S
C76    H98     1.140   .     S
C77    C78     1.407   .     D
C77    H99     1.140   .     S
C78    C79     1.408   .     S
C78    C81     1.492   .     S
C79    C80     1.400   .     D
C79    H100    1.140   .     S
C80    H101    1.140   .     S
C81    C82     1.404   .     D
C81    C86     1.405   .     S
C82    C83     1.396   .     S
C82    H102    1.140   .     S
C83    C84     1.406   .     D
C83    H103    1.140   .     S
C84    C85     1.408   .     S
C84    N617    1.455   .     S
C85    C86     1.397   .     D
C85    H104    1.140   .     S
C86    H105    1.140   .     S
C87    N88     1.299   .     D
C87    H106    1.140   .     S
N88    C89     1.439   .     S
C89    C90     1.409   .     D
C89    C94     1.401   .     S
C90    C91     1.397   .     S
C90    H107    1.140   .     S
C91    C92     1.402   .     D
C91    H108    1.140   .     S
C92    C93     1.404   .     S
C92    C317    1.479   .     S
C93    C94     1.399   .     D
C93    H109    1.140   .     S
C94    H110    1.140   .     S
C95    C96     1.414   .     D
C95    C597    1.395   .     S
C95    C314    1.479   .     S
C96    C97     1.407   .     S
C96    C598    1.414   .     S
C97    H111    1.140   .     S
C112   C113    1.400   .     D
C112   C117    1.404   .     S
C112   C124    1.476   .     S
C113   C114    1.396   .     S
C113   H135    1.140   .     S
C114   C115    1.407   .     D
C114   H136    1.140   .     S
C115   C116    1.408   .     S
C115   C118    1.492   .     S
C116   C117    1.400   .     D
C116   H137    1.140   .     S
C117   H138    1.140   .     S
C118   C119    1.404   .     D
C118   C123    1.405   .     S
C119   C120    1.396   .     S
C119   H139    1.140   .     S
C120   C121    1.406   .     D
C120   H140    1.140   .     S
C121   C122    1.408   .     S
C121   N619    1.455   1_565 S
C122   C123    1.397   .     D
C122   H141    1.140   .     S
C123   H142    1.140   .     S
C124   N125    1.299   .     D
C124   H143    1.140   .     S
N125   C126    1.439   .     S
C126   C127    1.409   .     D
C126   C131    1.401   .     S
C127   C128    1.397   .     S
C127   H144    1.140   .     S
C128   C129    1.402   .     D
C128   H145    1.140   .     S
C129   C130    1.404   .     S
C129   C354    1.479   .     S
C130   C131    1.399   .     D
C130   H146    1.140   .     S
C131   H147    1.140   .     S
C132   C133    1.414   .     D
C132   C599    1.395   .     S
C132   C351    1.479   .     S
C133   C134    1.407   .     S
C133   C600    1.414   .     S
C134   H148    1.140   .     S
C149   C150    1.400   .     D
C149   C154    1.404   .     S
C149   C161    1.476   .     S
C150   C151    1.396   .     S
C150   H172    1.140   .     S
C151   C152    1.407   .     D
C151   H173    1.140   .     S
C152   C153    1.408   .     S
C152   C155    1.492   .     S
C153   C154    1.400   .     D
C153   H174    1.140   .     S
C154   H175    1.140   .     S
C155   C156    1.404   .     D
C155   C160    1.405   .     S
C156   C157    1.396   .     S
C156   H176    1.140   .     S
C157   C158    1.406   .     D
C157   H177    1.140   .     S
C158   C159    1.408   .     S
C158   N613    1.455   .     S
C159   C160    1.397   .     D
C159   H178    1.140   .     S
C160   H179    1.140   .     S
C161   N162    1.299   .     D
C161   H180    1.140   .     S
N162   C163    1.439   .     S
C163   C164    1.409   .     D
C163   C168    1.401   .     S
C164   C165    1.397   .     S
C164   H181    1.140   .     S
C165   C166    1.402   .     D
C165   H182    1.140   .     S
C166   C167    1.404   .     S
C166   C539    1.479   .     S
C167   C168    1.399   .     D
C167   H183    1.140   .     S
C168   H184    1.140   .     S
C169   C170    1.414   .     S
C169   C536    1.479   .     S
C169   C601    1.395   1_556 D
C170   C171    1.407   .     S
C170   C602    1.414   1_556 D
C171   H185    1.140   .     S
C171   C282    1.398   .     D
C186   C187    1.400   .     D
C186   C191    1.404   .     S
C186   C198    1.476   .     S
C187   C188    1.396   .     S
C187   H209    1.140   .     S
C188   C189    1.407   .     D
C188   H210    1.140   .     S
C189   C190    1.408   .     S
C189   C192    1.492   .     S
C190   C191    1.400   .     D
C190   H211    1.140   .     S
C191   H212    1.140   .     S
C192   C193    1.404   .     D
C192   C197    1.405   .     S
C193   C194    1.396   .     S
C193   H213    1.140   .     S
C194   C195    1.406   .     D
C194   H214    1.140   .     S
C195   C196    1.408   .     S
C195   N615    1.455   .     S
C196   C197    1.397   .     D
C196   H215    1.140   .     S
C197   H216    1.140   .     S
C198   N199    1.299   .     D
C198   H217    1.140   .     S
N199   C200    1.439   .     S
C200   C201    1.409   .     D
C200   C205    1.401   .     S
C201   C202    1.397   .     S
C201   H218    1.140   .     S
C202   C203    1.402   .     D
C202   H219    1.140   .     S
C203   C204    1.404   .     S
C203   C576    1.479   .     S
C204   C205    1.399   .     D
C204   H220    1.140   .     S
C205   H221    1.140   .     S
C206   C207    1.414   .     S
C206   C573    1.479   .     S
C206   C603    1.395   1_556 D
C207   C208    1.407   .     S
C207   C604    1.414   1_556 D
C208   H222    1.140   .     S
C208   C245    1.398   .     D
C223   C224    1.400   .     D
C223   C228    1.404   .     S
C223   C235    1.476   .     S
C224   C225    1.396   .     S
C224   H246    1.140   .     S
C225   C226    1.407   .     D
C225   H247    1.140   .     S
C226   C227    1.408   .     S
C226   C229    1.492   .     S
C227   C228    1.400   .     D
C227   H248    1.140   .     S
C228   H249    1.140   .     S
C229   C230    1.404   .     D
C229   C234    1.405   .     S
C230   C231    1.396   .     S
C230   H250    1.140   .     S
C231   C232    1.406   .     D
C231   H251    1.140   .     S
C232   C233    1.408   .     S
C232   N609    1.455   .     S
C233   C234    1.397   .     D
C233   H252    1.140   .     S
C234   H253    1.140   .     S
C235   N236    1.299   .     D
C235   H254    1.140   .     S
N236   C237    1.439   .     S
C237   C238    1.409   .     D
C237   C242    1.401   .     S
C238   C239    1.397   .     S
C238   H255    1.140   .     S
C239   C240    1.402   .     D
C239   H256    1.140   .     S
C240   C241    1.404   .     S
C240   C465    1.479   .     S
C241   C242    1.399   .     D
C241   H257    1.140   .     S
C242   H258    1.140   .     S
C243   C244    1.414   .     S
C243   C462    1.479   .     S
C243   C605    1.395   1_556 D
C244   C245    1.407   .     S
C244   C606    1.414   1_556 D
C245   H259    1.140   .     S
C260   C261    1.400   .     D
C260   C265    1.404   .     S
C260   C272    1.476   .     S
C261   C262    1.396   .     S
C261   H283    1.140   .     S
C262   C263    1.407   .     D
C262   H284    1.140   .     S
C263   C264    1.408   .     S
C263   C266    1.492   .     S
C264   C265    1.400   .     D
C264   H285    1.140   .     S
C265   H286    1.140   .     S
C266   C267    1.404   .     D
C266   C271    1.405   .     S
C267   C268    1.396   .     S
C267   H287    1.140   .     S
C268   C269    1.406   .     D
C268   H288    1.140   .     S
C269   C270    1.408   .     S
C269   N611    1.455   1_565 S
C270   C271    1.397   .     D
C270   H289    1.140   .     S
C271   H290    1.140   .     S
C272   N273    1.299   .     D
C272   H291    1.140   .     S
N273   C274    1.439   .     S
C274   C275    1.409   .     D
C274   C279    1.401   .     S
C275   C276    1.397   .     S
C275   H292    1.140   .     S
C276   C277    1.402   .     D
C276   H293    1.140   .     S
C277   C278    1.404   .     S
C277   C502    1.479   .     S
C278   C279    1.399   .     D
C278   H294    1.140   .     S
C279   H295    1.140   .     S
C280   C281    1.414   .     S
C280   C499    1.479   .     S
C280   C607    1.395   1_556 D
C281   C282    1.407   .     S
C281   C608    1.414   1_556 D
C282   H296    1.140   .     S
C297   C298    1.400   .     D
C297   C302    1.404   .     S
C297   C309    1.476   .     S
C298   C299    1.396   .     S
C298   H320    1.140   .     S
C299   C300    1.407   .     D
C299   H321    1.140   .     S
C300   C301    1.408   .     S
C300   C303    1.492   .     S
C301   C302    1.400   .     D
C301   H322    1.140   .     S
C302   H323    1.140   .     S
C303   C304    1.404   .     D
C303   C308    1.405   .     S
C304   C305    1.396   .     S
C304   H324    1.140   .     S
C305   C306    1.406   .     D
C305   H325    1.140   .     S
C306   C307    1.408   .     S
C306   N613    1.455   .     S
C307   C308    1.397   .     D
C307   H326    1.140   .     S
C308   H327    1.140   .     S
C309   N310    1.299   .     D
C309   H328    1.140   .     S
N310   C311    1.439   .     S
C311   C312    1.409   .     D
C311   C316    1.401   .     S
C312   C313    1.397   .     S
C312   H329    1.140   .     S
C313   C314    1.402   .     D
C313   H330    1.140   .     S
C314   C315    1.404   .     S
C315   C316    1.399   .     D
C315   H331    1.140   .     S
C316   H332    1.140   .     S
C317   C318    1.414   .     S
C317   C597    1.395   1_556 D
C318   C319    1.407   .     S
C318   C598    1.414   1_556 D
C319   H333    1.140   .     S
C319   C430    1.398   .     D
C334   C335    1.400   .     D
C334   C339    1.404   .     S
C334   C346    1.476   .     S
C335   C336    1.396   .     S
C335   H357    1.140   .     S
C336   C337    1.407   .     D
C336   H358    1.140   .     S
C337   C338    1.408   .     S
C337   C340    1.492   .     S
C338   C339    1.400   .     D
C338   H359    1.140   .     S
C339   H360    1.140   .     S
C340   C341    1.404   .     D
C340   C345    1.405   .     S
C341   C342    1.396   .     S
C341   H361    1.140   .     S
C342   C343    1.406   .     D
C342   H362    1.140   .     S
C343   C344    1.408   .     S
C343   N615    1.455   1_565 S
C344   C345    1.397   .     D
C344   H363    1.140   .     S
C345   H364    1.140   .     S
C346   N347    1.299   .     D
C346   H365    1.140   .     S
N347   C348    1.439   .     S
C348   C349    1.409   .     D
C348   C353    1.401   .     S
C349   C350    1.397   .     S
C349   H366    1.140   .     S
C350   C351    1.402   .     D
C350   H367    1.140   .     S
C351   C352    1.404   .     S
C352   C353    1.399   .     D
C352   H368    1.140   .     S
C353   H369    1.140   .     S
C354   C355    1.414   .     S
C354   C599    1.395   1_556 D
C355   C356    1.407   .     S
C355   C600    1.414   1_556 D
C356   H370    1.140   .     S
C356   C393    1.398   .     D
C371   C372    1.400   .     D
C371   C376    1.404   .     S
C371   C383    1.476   .     S
C372   C373    1.396   .     S
C372   H394    1.140   .     S
C373   C374    1.407   .     D
C373   H395    1.140   .     S
C374   C375    1.408   .     S
C374   C377    1.492   .     S
C375   C376    1.400   .     D
C375   H396    1.140   .     S
C376   H397    1.140   .     S
C377   C378    1.404   .     D
C377   C382    1.405   .     S
C378   C379    1.396   .     S
C378   H398    1.140   .     S
C379   C380    1.406   .     D
C379   H399    1.140   .     S
C380   C381    1.408   .     S
C380   N609    1.455   .     S
C381   C382    1.397   .     D
C381   H400    1.140   .     S
C382   H401    1.140   .     S
C383   N384    1.299   .     D
C383   H402    1.140   .     S
N384   C385    1.439   .     S
C385   C386    1.409   .     D
C385   C390    1.401   .     S
C386   C387    1.397   .     S
C386   H403    1.140   .     S
C387   C388    1.402   .     D
C387   H404    1.140   .     S
C388   C389    1.404   .     S
C389   C390    1.399   .     D
C389   H405    1.140   .     S
C390   H406    1.140   .     S
C391   C392    1.414   .     S
C391   C593    1.395   1_556 D
C392   C393    1.407   .     S
C392   C594    1.414   1_556 D
C393   H407    1.140   .     S
C408   C409    1.400   .     D
C408   C413    1.404   .     S
C408   C420    1.476   .     S
C409   C410    1.396   .     S
C409   H431    1.140   .     S
C410   C411    1.407   .     D
C410   H432    1.140   .     S
C411   C412    1.408   .     S
C411   C414    1.492   .     S
C412   C413    1.400   .     D
C412   H433    1.140   .     S
C413   H434    1.140   .     S
C414   C415    1.404   .     D
C414   C419    1.405   .     S
C415   C416    1.396   .     S
C415   H435    1.140   .     S
C416   C417    1.406   .     D
C416   H436    1.140   .     S
C417   C418    1.408   .     S
C417   N611    1.455   .     S
C418   C419    1.397   .     D
C418   H437    1.140   .     S
C419   H438    1.140   .     S
C420   N421    1.299   .     D
C420   H439    1.140   .     S
N421   C422    1.439   .     S
C422   C423    1.409   .     D
C422   C427    1.401   .     S
C423   C424    1.397   .     S
C423   H440    1.140   .     S
C424   C425    1.402   .     D
C424   H441    1.140   .     S
C425   C426    1.404   .     S
C426   C427    1.399   .     D
C426   H442    1.140   .     S
C427   H443    1.140   .     S
C428   C429    1.414   .     S
C428   C595    1.395   1_556 D
C429   C430    1.407   .     S
C429   C596    1.414   1_556 D
C430   H444    1.140   .     S
C445   C446    1.400   .     D
C445   C450    1.404   .     S
C445   C457    1.476   .     S
C446   C447    1.396   .     S
C446   H468    1.140   .     S
C447   C448    1.407   .     D
C447   H469    1.140   .     S
C448   C449    1.408   .     S
C448   C451    1.492   .     S
C449   C450    1.400   .     D
C449   H470    1.140   .     S
C450   H471    1.140   .     S
C451   C452    1.404   .     D
C451   C456    1.405   .     S
C452   C453    1.396   .     S
C452   H472    1.140   .     S
C453   C454    1.406   .     D
C453   H473    1.140   .     S
C454   C455    1.408   .     S
C454   N621    1.455   .     S
C455   C456    1.397   .     D
C455   H474    1.140   .     S
C456   H475    1.140   .     S
C457   N458    1.299   .     D
C457   H476    1.140   .     S
N458   C459    1.439   .     S
C459   C460    1.409   .     D
C459   C464    1.401   .     S
C460   C461    1.397   .     S
C460   H477    1.140   .     S
C461   C462    1.402   .     D
C461   H478    1.140   .     S
C462   C463    1.404   .     S
C463   C464    1.399   .     D
C463   H479    1.140   .     S
C464   H480    1.140   .     S
C465   C466    1.414   .     D
C465   C605    1.395   .     S
C466   C467    1.407   .     S
C466   C606    1.414   .     S
C467   H481    1.140   .     S
C467   C578    1.398   .     D
C482   C483    1.400   .     D
C482   C487    1.404   .     S
C482   C494    1.476   .     S
C483   C484    1.396   .     S
C483   H505    1.140   .     S
C484   C485    1.407   .     D
C484   H506    1.140   .     S
C485   C486    1.408   .     S
C485   C488    1.492   .     S
C486   C487    1.400   .     D
C486   H507    1.140   .     S
C487   H508    1.140   .     S
C488   C489    1.404   .     D
C488   C493    1.405   .     S
C489   C490    1.396   .     S
C489   H509    1.140   .     S
C490   C491    1.406   .     D
C490   H510    1.140   .     S
C491   C492    1.408   .     S
C491   N623    1.455   1_565 S
C492   C493    1.397   .     D
C492   H511    1.140   .     S
C493   H512    1.140   .     S
C494   N495    1.299   .     D
C494   H513    1.140   .     S
N495   C496    1.439   .     S
C496   C497    1.409   .     D
C496   C501    1.401   .     S
C497   C498    1.397   .     S
C497   H514    1.140   .     S
C498   C499    1.402   .     D
C498   H515    1.140   .     S
C499   C500    1.404   .     S
C500   C501    1.399   .     D
C500   H516    1.140   .     S
C501   H517    1.140   .     S
C502   C503    1.414   .     D
C502   C607    1.395   .     S
C503   C504    1.407   .     S
C503   C608    1.414   .     S
C504   H518    1.140   .     S
C504   C541    1.398   .     D
C519   C520    1.400   .     D
C519   C524    1.404   .     S
C519   C531    1.476   .     S
C520   C521    1.396   .     S
C520   H542    1.140   .     S
C521   C522    1.407   .     D
C521   H543    1.140   .     S
C522   C523    1.408   .     S
C522   C525    1.492   .     S
C523   C524    1.400   .     D
C523   H544    1.140   .     S
C524   H545    1.140   .     S
C525   C526    1.404   .     D
C525   C530    1.405   .     S
C526   C527    1.396   .     S
C526   H546    1.140   .     S
C527   C528    1.406   .     D
C527   H547    1.140   .     S
C528   C529    1.408   .     S
C528   N617    1.455   .     S
C529   C530    1.397   .     D
C529   H548    1.140   .     S
C530   H549    1.140   .     S
C531   N532    1.299   .     D
C531   H550    1.140   .     S
N532   C533    1.439   .     S
C533   C534    1.409   .     D
C533   C538    1.401   .     S
C534   C535    1.397   .     S
C534   H551    1.140   .     S
C535   C536    1.402   .     D
C535   H552    1.140   .     S
C536   C537    1.404   .     S
C537   C538    1.399   .     D
C537   H553    1.140   .     S
C538   H554    1.140   .     S
C539   C540    1.414   .     D
C539   C601    1.395   .     S
C540   C541    1.407   .     S
C540   C602    1.414   .     S
C541   H555    1.140   .     S
C556   C557    1.400   .     D
C556   C561    1.404   .     S
C556   C568    1.476   .     S
C557   C558    1.396   .     S
C557   H579    1.140   .     S
C558   C559    1.407   .     D
C558   H580    1.140   .     S
C559   C560    1.408   .     S
C559   C562    1.492   .     S
C560   C561    1.400   .     D
C560   H581    1.140   .     S
C561   H582    1.140   .     S
C562   C563    1.404   .     D
C562   C567    1.405   .     S
C563   C564    1.396   .     S
C563   H583    1.140   .     S
C564   C565    1.406   .     D
C564   H584    1.140   .     S
C565   C566    1.408   .     S
C565   N619    1.455   .     S
C566   C567    1.397   .     D
C566   H585    1.140   .     S
C567   H586    1.140   .     S
C568   N569    1.299   .     D
C568   H587    1.140   .     S
N569   C570    1.439   .     S
C570   C571    1.409   .     D
C570   C575    1.401   .     S
C571   C572    1.397   .     S
C571   H588    1.140   .     S
C572   C573    1.402   .     D
C572   H589    1.140   .     S
C573   C574    1.404   .     S
C574   C575    1.399   .     D
C574   H590    1.140   .     S
C575   H591    1.140   .     S
C576   C577    1.414   .     D
C576   C603    1.395   .     S
C577   C578    1.407   .     S
C577   C604    1.414   .     S
C578   H592    1.140   .     S
C593   H633    1.140   .     S
C593   C391    1.395   1_554 D
C594   C600    1.484   .     S
C594   C392    1.414   1_554 D
C595   H634    1.140   .     S
C595   C428    1.395   1_554 D
C596   C598    1.484   .     S
C596   C429    1.414   1_554 D
C597   H635    1.140   .     S
C597   C317    1.395   1_554 D
C598   C318    1.414   1_554 D
C599   H636    1.140   .     S
C599   C354    1.395   1_554 D
C600   C355    1.414   1_554 D
C601   H637    1.140   .     S
C601   C169    1.395   1_554 D
C602   C608    1.484   .     S
C602   C170    1.414   1_554 D
C603   H638    1.140   .     S
C603   C206    1.395   1_554 D
C604   C606    1.484   .     S
C604   C207    1.414   1_554 D
C605   H639    1.140   .     S
C605   C243    1.395   1_554 D
C606   C244    1.414   1_554 D
C607   H640    1.140   .     S
C607   C280    1.395   1_554 D
C608   C281    1.414   1_554 D
N609   C610    1.450   .     S
C610   C622    1.412   .     S
C610   C626    1.412   .     D
N611   C612    1.450   .     S
N611   C269    1.455   1_545 S
C612   C624    1.412   .     S
C612   C625    1.412   .     D
N613   C614    1.450   .     S
C614   C618    1.412   .     D
C614   C626    1.412   .     S
N615   C616    1.450   .     S
N615   C343    1.455   1_545 S
C616   C620    1.412   .     D
C616   C625    1.412   1_655 S
N617   C618    1.450   .     S
C618   C628    1.412   .     S
N619   C620    1.450   .     S
N619   C121    1.455   1_545 S
C620   C627    1.412   1_655 S
N621   C622    1.450   .     S
C622   C628    1.412   .     D
N623   C624    1.450   .     S
N623   C491    1.455   1_545 S
C624   C627    1.412   .     D
C625   F632    1.354   .     S
C625   C616    1.412   1_455 S
C626   F631    1.354   .     S
C627   F630    1.354   .     S
C627   C620    1.412   1_455 S
C628   F629    1.354   .     S
